# Basic package file for MODFLOW-2000, generated by PMWIN
FREE
Constant               1    2. IBOUND Array for Layer 1
Constant               1    2. IBOUND Array for Layer 2
Constant               1    2. IBOUND Array for Layer 3
   -999.99
         1         1(15G14.0)                   -1  4. Starting Heads in Layer 1
      17.25836      17.25052      17.23528      17.21295      17.18382      17.14819      17.10641       17.0589      17.00607      16.94842      16.88643       16.8206      16.75141      16.67929      16.60468
      16.52796      16.44952      16.36977      16.28911      16.20795      16.12665      16.04554      15.96488      15.88488      15.80565      15.72725      15.64968      15.57288      15.49672      15.42103
      15.34559      15.27015      15.19443       15.1181       15.0408      14.96208      14.88126      14.79709      14.70669      14.60182
      17.26079      17.25295       17.2377      17.21533      17.18613       17.1504       17.1085      17.06081       17.0078      16.94994      16.88774      16.82173      16.75237      16.68014      16.60542
      16.52858         16.45      16.37008      16.28923      16.20786      16.12637      16.04508      15.96427      15.88415      15.80483      15.72637      15.64877      15.57197      15.49583       15.4202
      15.34484      15.26949      15.19386      15.11762      15.04039      14.96173      14.88097      14.79688      14.70661      14.60205
      17.26525      17.25741      17.24214      17.21972       17.1904       17.1545      17.11235      17.06435      17.01097      16.95272      16.89012      16.82374      16.75411      16.68168      16.60681
       16.5298      16.45098      16.37077      16.28957      16.20783      16.12597      16.04434      15.96325      15.88289      15.80339      15.72482      15.64715      15.57033      15.49423      15.41868
      15.34344      15.26824      15.19277      15.11668      15.03959      14.96103      14.88036      14.79637      14.70627      14.60206
      17.27151      17.26368      17.24839       17.2259      17.19646      17.16031      17.11782      17.06937      17.01544      16.95658      16.89335      16.82639      16.75634      16.68375       16.6088
      16.53165      16.45259      16.37197      16.29029      16.20801      16.12561      16.04351        15.962       15.8813      15.80155      15.72278      15.64499      15.56812      15.49204      15.41658
       15.3415      15.26649      15.19123      15.11532      15.03838      14.95993      14.87933      14.79543      14.70548      14.60157
      17.27938      17.27158      17.25631      17.23378      17.20419      17.16776      17.12483      17.07578       17.0211      16.96134      16.89712      16.82921      16.75853        16.686      16.61127
      16.53419      16.45493      16.37387      16.29156      16.20858      16.12549      16.04276      15.96072      15.87958      15.79948      15.72045      15.64248       15.5655      15.48941      15.41402
      15.33909       15.2643      15.18927      15.11357      15.03677      14.95839      14.87782      14.79393      14.70404      14.60031
       17.2887      17.28096      17.26575      17.24322      17.21352       17.1768      17.13334      17.08354      17.02786      16.96681        16.901      16.83131      16.75919      16.68772      16.61403
      16.53748      16.45819      16.37668      16.29361      16.20975      16.12579      16.04228       15.9596      15.87795      15.79742      15.71805      15.63981      15.56264      15.48646       15.4111
      15.33631      15.26174      15.18695      15.11144      15.03475      14.95638      14.87573      14.79174      14.70177      14.59806
      17.29928      17.29163      17.27656      17.25412      17.22437      17.18739      17.14337      17.09267      17.03572      16.97285      16.90436      16.83091       16.7536      16.68747      16.61679
      16.54166      16.46266      16.38068      16.29669      16.21173       16.1267      16.04229      15.95887      15.87663      15.79561      15.71581       15.6372      15.55975      15.48337      15.40794
      15.33323      15.25886      15.18431      15.10897       15.0323      14.95381      14.87294      14.78867      14.69845      14.59454
      17.31086      17.30337      17.28851       17.2663      17.23665       17.1995      17.15494      17.10327      17.04486      16.97963      16.90668      16.82591      16.75224      16.68395      16.61949
      16.54715      16.46876      16.38624       16.3011      16.21474      16.12843      16.04299      15.95879      15.87591      15.79433      15.71401      15.63493      15.55704      15.48032      15.40469
      15.32996      15.25574       15.1814      15.10617       15.0294      14.95061      14.86931      14.78456      14.69384      14.58946
      17.32313      17.31583       17.3013      17.27946      17.25014      17.21304      17.16805       17.1155      17.05581      16.98821      16.90762      16.83054      16.75798      16.68916      16.62241
      16.55493      16.47709       16.3938      16.30716      16.21904       16.1312      16.04466      15.95966      15.87612      15.79392      15.71299      15.63329      15.55481      15.47756      15.40151
      15.32659      15.25244      15.17827      15.10304      15.02597      14.94663      14.86465      14.77916      14.68768      14.58253
      17.33572      17.32862      17.31445      17.29313      17.26438      17.22772       17.1826      17.12942      17.06944      17.00303      16.92898      16.84653      16.77226      16.70421      16.64049
      16.56783      16.48828      16.40363      16.31514      16.22483      16.13525      16.04763      15.96185      15.87762      15.79473      15.71308      15.63264       15.5534       15.4754      15.39869
       15.3233      15.24905      15.17497      15.09954      15.02185      14.94167      14.85873      14.77224      14.67972      14.57343
      17.34822      17.34126      17.32738      17.30656      17.27852      17.24269      17.19797      17.14441      17.08459      17.01985       16.9499      16.87481      16.79523      16.73005      16.65912
      16.58271      16.50126      16.41527      16.32502      16.23237      16.14099      16.05239       15.9658      15.88078      15.79709      15.71462      15.63331      15.55317      15.47425      15.39662
       15.3204      15.24572      15.17146      15.09545      15.01674      14.93541      14.85127      14.76354       14.6697      14.56188
      17.36028      17.35333      17.33956      17.31896      17.29133      17.25612      17.21217      17.15928      17.10031      17.03708      16.96965      16.89844      16.82475      16.75228      16.67699
      16.59783      16.51457       16.4272      16.33573      16.24185      16.14923       16.0595      15.97189      15.88589      15.80126      15.71783      15.63556      15.55443      15.47448      15.39581
      15.31855      15.24279       15.1674      15.09018       15.0102      14.92754      14.84204      14.75286      14.65744      14.54769
      17.37168       17.3646      17.35067      17.32993      17.30223      17.26712      17.22396      17.17286      17.11561      17.05378      16.98788      16.91831      16.84577      16.77111      16.69348
      16.61233      16.52743      16.43876       16.3467      16.25284      16.15976      16.06889       15.9801      15.89298      15.80727      15.72279      15.63946      15.55725      15.47619      15.39634
      15.31775      15.24021       15.1627      15.08362       15.0021      14.91795      14.83091      14.74011      14.64284      14.53075
      17.38239      17.37506      17.36077      17.33967      17.31171      17.27669       17.2344      17.18508      17.12973      17.06937       17.0046      16.93582      16.86344      16.78778      16.70873
      16.62615      16.54001      16.45051      16.35829       16.2647      16.17152      16.07989      15.99004       15.9018      15.81498      15.72939      15.64493      15.56154      15.47919      15.39786
      15.31746      15.23765      15.15757      15.07615      14.99266      14.90673      14.81796      14.72533      14.62596      14.51113
      17.39254      17.38489      17.37015      17.34861      17.32042       17.2856      17.24419      17.19642      17.14277      17.08382      17.02002      16.95174      16.87933      16.80307      16.72309
      16.63952      16.55257      16.46264      16.37046      16.27717      16.18401       16.0919      16.00121      15.91196      15.82406      15.73735      15.65172      15.56704       15.4832      15.40009
      15.31749      15.23502      15.15207      15.06794      14.98208      14.89406      14.80334       14.7087        14.607      14.48907
      17.40238      17.39437      17.37916       17.3572      17.32883      17.29426      17.25369      17.20723      17.15505      17.09735      17.03441      16.96655      16.89411      16.81743      16.73681
      16.65258      16.56514      16.47503        16.383      16.28996      16.19687      16.10443      16.01308      15.92297      15.83406      15.74627      15.65944      15.57341      15.48795      15.40283
      15.31773      15.23231      15.14618      15.05901      14.97047      14.88014       14.7873      14.69051       14.5863      14.46495
       17.4122      17.40384      17.38816       17.3658      17.33724      17.30291      17.26308      17.21779      17.16687      17.11026      17.04805      16.98054      16.90809      16.83112      16.75006
      16.66539      16.57764      16.48747       16.3956      16.30279      16.20975      16.11707      16.02518      15.93429      15.84447      15.75564      15.66765      15.58025      15.49313      15.40591
      15.31814      15.22949      15.13985      15.04933      14.95791      14.86516      14.77015      14.67116      14.56434      14.43938
      17.42232      17.41363      17.39749       17.3747      17.34592      17.31172      17.27253      17.22827      17.17847      17.12276      17.06114       16.9939      16.92146      16.84428       16.7629
       16.6779      16.58993      16.49971      16.40798      16.31534      16.22231      16.12938      16.03697      15.94536      15.85467      15.76484      15.67572      15.58702      15.49832      15.40907
      15.31862      15.22653        15.133      15.03884      14.94449       14.8494      14.75232      14.65118      14.54175      14.41311
      17.43302      17.42404      17.40748      17.38426      17.35514      17.32089      17.28215      17.23884      17.19001      17.13499      17.07379      17.00674       16.9343      16.85696      16.77534
      16.69006      16.60187      16.51155      16.41986      16.32731      16.23419      16.14091      16.04794      15.95559      15.86401      15.77319      15.68295      15.59298      15.50282      15.41176
      15.31888      15.22331       15.1255      15.02753       14.9305      14.83337      14.73443      14.63126       14.5193      14.38703
      17.44461      17.43537      17.41846      17.39485      17.36535      17.33082      17.29222      17.24964      17.20157      17.14698      17.08604      17.01912      16.94666      16.86922       16.7874
      16.70188      16.61343      16.52286      16.43103      16.33841      16.24504      16.15125       16.0576      15.96442      15.87187      15.77995       15.6885      15.59722      15.50561      15.41292
      15.31804      15.21936      15.11726      15.01576      14.91669      14.81789      14.71727      14.61219      14.49781      14.36207
       17.4573       17.4479      17.43075      17.40687      17.37712      17.34237      17.30359      17.26101      17.21312      17.15872      17.09793      17.03108      16.95862      16.88108       16.7991
      16.71336      16.62464      16.53375      16.44151       16.3484      16.25447      16.16002      16.06554      15.97138      15.87771      15.78452      15.69166      15.59885      15.50556      15.41103
       15.3141      15.21314      15.10877      15.00529      14.90445      14.80399      14.70167      14.59471      14.47803       14.3391
      17.47128      17.46181      17.44455      17.42057      17.39074      17.35588      17.31675      17.27345      17.22502      17.17047      17.10963      17.04275      16.97024      16.89261      16.81047
       16.7245      16.63546      16.54411       16.4512      16.35721      16.26239      16.16702      16.07152      15.97619      15.88118       15.7865      15.69201       15.5974      15.50219      15.40565
      15.30677      15.20474      15.10048      14.99664      14.89431      14.79217      14.68814      14.57934       14.4605      14.31872
      17.48666      17.47719      17.45995      17.43598      17.40611      17.37106      17.33139      17.28715      17.23778      17.18261      17.12142      17.05432      16.98164      16.90385      16.82151
      16.73526      16.64577      16.55378      16.45996      16.36485      16.26883      16.17227       16.0755      15.97878      15.88223      15.78585      15.68951      15.59298      15.49586      15.39762
      15.29763      15.19561       15.0922      14.98873       14.8857      14.78228      14.67672      14.56624      14.44547      14.30126
      17.50345      17.49407      17.47694      17.45305      17.42312      17.38775      17.34735      17.30202      17.25148      17.19536      17.13348      17.06591      16.99292      16.91487      16.83225
      16.74561      16.65554      16.56271      16.46776       16.3713      16.27385      16.17584      16.07758      15.97929      15.88103      15.78279       15.6845      15.58602      15.48717      15.38773
      15.28741      15.18605      15.08382      14.98115      14.87807       14.7739      14.66718      14.55529       14.4329      14.28669
      17.52163      17.51241       17.4955      17.47176      17.44176      17.40596      17.36467      17.31805       17.2661      17.20872      17.14587       17.0776      17.00411      16.92569      16.84269
      16.75557       16.6648      16.57095      16.47467      16.37665      16.27756      16.17792      16.07804      15.97805      15.87797      15.77778      15.67744      15.57698      15.47653      15.37627
      15.27622      15.17603      15.07532       14.9738      14.87114      14.76669      14.65919      14.54621      14.42252      14.27475
      17.54104      17.53209      17.51554      17.49208       17.4621      17.42583      17.38346      17.33528      17.28159      17.22265      17.15854      17.08935       17.0152      16.93627      16.85282
      16.76515      16.67362      16.57864      16.48084      16.38103      16.28013      16.17877      16.07724      15.97555      15.87363       15.7714      15.66887      15.56621      15.46395      15.36293
      15.26375       15.1654      15.06668      14.96668       14.8648      14.76042      14.65246      14.53868      14.41398      14.26499
      17.56142      17.55286      17.53686      17.51392       17.4842      17.44759      17.40398      17.35377      17.29786      17.23696      17.17134      17.10102      17.02604       16.9465      16.86253
       16.7743      16.68201       16.5859      16.48644      16.38465      16.28182      16.17878       16.0757      15.97241       15.8687      15.76438      15.65937      15.55389      15.44887      15.34643
      15.24922      15.15391      15.05798      14.95992      14.85905      14.75493      14.64671      14.53235      14.40685       14.2569
       17.5823      17.57423      17.55896      17.53683      17.50779      17.47127      17.42641      17.37351      17.31465      17.25139      17.18401      17.11239      17.03644      16.95615      16.87158
      16.78279      16.68984      16.59273      16.49164      16.38771      16.28293      16.17843      16.07404      15.96936      15.86401      15.75758      15.64971      15.54017       15.4297      15.32266
      15.23107      15.14145      15.04949      14.95374      14.85394      14.75012      14.64173       14.5269      14.40075      14.24998
      17.60298       17.5954       17.5809       17.5597      17.53163      17.49583      17.45027      17.39392       17.3313      17.26548      17.19621      17.12315      17.04609      16.96492      16.87962
       16.7902      16.69664       16.5988      16.49638      16.39042      16.28395      16.17838      16.07299      15.96719      15.86047      15.75216      15.64124      15.52588      15.40345      15.27662
      15.20689      15.12868      15.04197      14.94847      14.84952      14.74589      14.63732      14.52207      14.39533       14.2438
      17.62254      17.61533      17.60132      17.58062      17.55291      17.51709      17.47068      17.41208      17.34676      17.27863      17.20751      17.13296      17.05467      16.97247      16.88628
      16.79605      16.70169      16.60304      16.49981      16.39306      16.28577      16.17937      16.07317      15.96655      15.85893      15.74948      15.63649      15.51538      15.37023      15.25672
      15.17875      15.11931      15.03685      14.94452      14.84587      14.74219      14.63335      14.51766      14.39033        14.238
      17.64006      17.63293      17.61889      17.59786      17.56929      17.53193        17.484      17.42525      17.35946      17.28995      17.21734      17.14142      17.06192      16.97863      16.89143
      16.80024      16.70496      16.60552      16.50205       16.3957      16.28849      16.18158       16.0748      15.96772      15.85984      15.75054      15.63883      15.52292      15.40014      15.27312
      15.20298      15.12411      15.03657      14.94254      14.84319      14.73905      14.62976      14.51356      14.38558      14.23235
      17.65479      17.64741       17.6328      17.61073      17.58061      17.54144      17.49238      17.43396      17.36863      17.29873      17.22524      17.14827      17.06771      16.98339      16.89523
      16.80315      16.70713      16.60728        16.504      16.39832      16.29156      16.18462      16.07764      15.97046       15.8628      15.75435      15.64481      15.53399      15.42264      15.31495
      15.22262      15.13203      15.03895      14.94221      14.84147       14.7365      14.62656      14.50972        14.381      14.22673
      17.66631      17.65845      17.64291      17.61951      17.58778      17.54716      17.49747      17.43943      17.37472      17.30496      17.23108      17.15343      17.07206      16.98692      16.89797
      16.80522      16.70877      16.60885      16.50598      16.40098       16.2948      16.18814       16.0813      15.97431       15.8671      15.75962      15.65191      15.54426      15.43761      15.33396
      15.23569      15.13929      15.04217      14.94286      14.84052      14.73448      14.62373      14.50613      14.37654       14.2211
       17.6746      17.66613      17.64957      17.62488      17.59182      17.55021      17.50021      17.44256      17.37843      17.30899      17.23505      17.15704      17.07514      16.98942      16.89994
       16.8068      16.71018      16.61041      16.50802      16.40368      16.29811      16.19189      16.08539      15.97875      15.87207      15.76542      15.65897      15.55304      15.44822      15.34532
      15.24474      15.14525      15.04538      14.94396      14.84008      14.73291      14.62125       14.5028      14.37224      14.21547
      17.67992      17.67085      17.65335      17.62758      17.59356      17.55134      17.50126      17.44397      17.38035      17.31129      17.23748      17.15935      17.07718      16.99113      16.90135
      16.80805      16.71147      16.61198      16.51008      16.40634      16.30137      16.19566      16.08957      15.98335      15.87716      15.77114      15.66548      15.56041      15.45626      15.35327
      15.25142      15.15006      15.04827      14.94518      14.83996       14.7317       14.6191      14.49974      14.36814      14.20992
      17.68271      17.67311      17.65485       17.6283      17.59364       17.5511      17.50107      17.44413      17.38098      17.31231      17.23872      17.16063      17.07838      16.99221      16.90235
      16.80905      16.71264      16.61348      16.51205      16.40887      16.30445      16.19923      16.09358      15.98777      15.88199      15.77643      15.67123      15.56657      15.46257      15.35929
      15.25655      15.15392      15.05076      14.94637      14.84001      14.73076      14.61727        14.497       14.3643      14.20455
       17.6835      17.67349      17.65468       17.6276      17.59257       17.5499      17.50001      17.44341      17.38068       17.3124      17.23908      17.16115      17.07896      16.99282      16.90301
      16.80984      16.71364      16.61483      16.51384      16.41115      16.30721      16.20243      16.09718      15.99173      15.88629      15.78103       15.6761      15.57159      15.46755      15.36393
      15.26053      15.15699      15.05282      14.94744      14.84015      14.73006      14.61576      14.49461      14.36083      14.19949
      17.68286      17.67257      17.65339      17.62599      17.59078      17.54812      17.49842      17.44215      17.37979      17.31187      17.23884      17.16112      17.07908      16.99306      16.90338
      16.81038      16.71444      16.61594      16.51533      16.41304       16.3095      16.20509      16.10017        15.995      15.88981      15.78476      15.67997       15.5755      15.47135      15.36742
      15.26353      15.15934      15.05445      14.94833      14.84033      14.72957      14.61459      14.49267      14.35787      14.19493
      17.68141      17.67094      17.65155        17.624      17.58874      17.54617      17.49667      17.44068      17.37864      17.31103      17.23826      17.16076      17.07889      16.99302       16.9035
      16.81069      16.71496      16.61673       16.5164      16.41442      16.31117      16.20704      16.10236       15.9974      15.89238      15.78745      15.68273      15.57825      15.47399      15.36984
       15.2656      15.16098      15.05561      14.94899      14.84051      14.72927      14.61379      14.49127       14.3556      14.19116
      17.67999      17.66943      17.64996      17.62236      17.58712      17.54463      17.49529      17.43949      17.37767      17.31026      17.23769      17.16034      17.07861      16.99287      16.90346
      16.81078      16.71519      16.61712      16.51697      16.41516      16.31208      16.20811      16.10356      15.99872      15.89378      15.78891      15.68422      15.57972       15.4754      15.37112
       15.2667      15.16186      15.05624      14.94937      14.84064      14.72915      14.61339      14.49053       14.3543       14.1887
         1         1(15G14.0)                   -1  4. Starting Heads in Layer 2
      17.24081      17.23341       17.2188       17.1972      17.16885      17.13405      17.09313      17.04649      16.99453      16.93773      16.87657      16.81153      16.74308      16.67166      16.59769
      16.52157      16.44368      16.36443      16.28422      16.20345       16.1225      16.04169      15.96128      15.88149      15.80243      15.72418      15.64672      15.57001      15.49392      15.41828
      15.34289       15.2675      15.19184      15.11561      15.03852      14.96024      14.88042      14.79883      14.71606      14.63688
       17.2425      17.23511      17.22049      17.19886      17.17048      17.13561      17.09461      17.04785      16.99576      16.93881       16.8775      16.81232      16.74376      16.67226      16.59822
      16.52201      16.44401      16.36462      16.28425      16.20331      16.12219      16.04122      15.96068      15.88077      15.80163      15.72333      15.64585      15.56913      15.49307      15.41749
      15.34217      15.26687      15.19129      15.11515      15.03813       14.9599      14.88014      14.79861      14.71592      14.63692
      17.24589      17.23849      17.22387       17.2022      17.17374      17.13876      17.09757      17.05058      16.99821      16.94096      16.87934      16.81388      16.74511      16.67347      16.59932
      16.52298      16.44479      16.36515      16.28448      16.20321      16.12175      16.04047      15.95967      15.87955      15.80024      15.72182      15.64428      15.56755      15.49152      15.41602
      15.34083      15.26567      15.19025      15.11425      15.03734      14.95921      14.87951      14.79807       14.7155       14.6367
      17.25086      17.24347      17.22882      17.20712      17.17855      17.14339      17.10194       17.0546      17.00181      16.94408      16.88196      16.81606      16.74697       16.6752      16.60099
      16.52455      16.44615      16.36617      16.28506       16.2033      16.12136      16.03963      15.95844        15.878      15.79845      15.71985      15.64219      15.56541       15.4894      15.41399
      15.33894      15.26397      15.18874      15.11292      15.03615      14.95811      14.87848      14.79709      14.71463        14.636
      17.25727      17.24989      17.23525       17.2135      17.18482      17.14944      17.10765      17.05985      17.00648      16.94805      16.88518      16.81856      16.74903      16.67725      16.60318
      16.52678      16.44821      16.36784      16.28617      16.20378      16.12119      16.03888      15.95719      15.87633      15.79645      15.71759      15.63975      15.56287      15.48685       15.4115
       15.3366      15.26183      15.18682      15.11119      15.03456      14.95657      14.87696      14.79556      14.71312      14.63458
        17.265      17.25764      17.24302      17.22124      17.19245      17.15683      17.11465      17.06628      17.01215      16.95277      16.88875      16.82098      16.75071      16.67932      16.60585
      16.52978      16.45115      16.37036      16.28802      16.20482      16.12144       16.0384       15.9561      15.87475      15.79446      15.71526      15.63716       15.5601      15.48399      15.40866
      15.33389      15.25932      15.18454      15.10909      15.03254      14.95455      14.87484      14.79333      14.71079      14.63222
      17.27387      17.26655      17.25198      17.23023      17.20136      17.16552      17.12291      17.07389      17.01886      16.95824      16.89256      16.82293      16.75137      16.68117      16.60905
      16.53378      16.45526      16.37401      16.29083      16.20664      16.12228       16.0384      15.95541      15.87349      15.79271       15.7131      15.63464      15.55729      15.48098      15.40559
      15.33089      15.25651      15.18194      15.10663      15.03009      14.95197      14.87203      14.79024      14.70744      14.62868
       17.2837      17.27645      17.26199      17.24033      17.21147      17.17545      17.13243      17.08275      17.02679      16.96478      16.89701      16.82525      16.75388      16.68375      16.61334
      16.53925      16.46092      16.37911      16.29489      16.20944      16.12391      16.03909      15.95535      15.87282       15.7915      15.71138      15.63244      15.55467      15.47802      15.40242
      15.32769      15.25344      15.17906      15.10384      15.02718      14.94874      14.86837       14.7861      14.70283       14.6237
      17.29427      17.28712      17.27282      17.25134      17.22261      17.18654      17.14319      17.09297      17.03634      16.97334      16.90381      16.83211      16.76091       16.6907      16.62024
      16.54704      16.46864      16.38603      16.30045      16.21344      16.12656      16.04073      15.95623      15.87305      15.79113       15.7104      15.63087      15.55251      15.47533      15.39933
       15.3244       15.2502      15.17596       15.1007      15.02372      14.94473      14.86368      14.78069      14.69673        14.617
      17.30533      17.29829      17.28419        17.263      17.23457      17.19865      17.15511      17.10458      17.04798      16.98561      16.91753      16.84535      16.77369      16.70348      16.63295
      16.55827      16.47878      16.39499      16.30777      16.21885      16.13044      16.04364       15.9584      15.87455      15.79194      15.71051      15.63024      15.55113      15.47322      15.39656
      15.32117      15.24685      15.17267      15.09718      15.01956      14.93972      14.85773      14.77378      14.68889      14.60831
      17.31662      17.30968       17.2958      17.27492      17.24692      17.21144      17.16799      17.11737      17.06122       17.0001      16.93402      16.86382      16.79153      16.72106      16.64823
      16.57153      16.49064      16.40568      16.31687      16.22589      16.13594      16.04827      15.96227      15.87766      15.79426      15.71201      15.63089      15.55089      15.47207       15.3945
      15.31828      15.24353      15.16914      15.09303      15.01439       14.9334      14.85024      14.76512      14.67906      14.59738
       17.3279      17.32103      17.30729      17.28666      17.25902      17.22407      17.18123      17.13119      17.07577      17.01574      16.95121      16.88276      16.81157      16.73913      16.66403
      16.58544      16.50308      16.41693      16.32703      16.23496      16.14388      16.05515      15.96818      15.88262       15.7983      15.71511      15.63303      15.55205      15.47222      15.39361
      15.31635      15.24052      15.16499      15.08767      15.00777      14.92548      14.84099      14.75451      14.66707      14.58403
        17.339      17.33214      17.31845      17.29792      17.27049      17.23594      17.19407      17.14531      17.09089      17.03171      16.96813      16.90059      16.82972      16.75609      16.67936