# Recharge file for MODFLOW-2000, generated by PMWIN
#
PARAMETER  2 
         1        50
RCH_9_1 RCH  1  1
RCH_1 ZRCH_1 9 
RCH_9_2 RCH  1  1
RCH_2 ZRCH_2 9 
         1         0
RCH_9_1 0
         1         0
RCH_9_2 0
