# WELL file for MODFLOW-2000 or higher, generated by PMWIN
#
PARAMETER 1  6 
 6  50 
WEL_0_2 Q  1 6 
         1        14        13       -9000
         1        27        23       -9000
         2        14        25       -9000
         2        23        13       -9000
         3         7         9      -15000
         3        28        29      -15000
 0  0 
 0  1 
WEL_0_2
