# Zone file for MODFLOW-2000, generated by PMWIN
 14 
ZHK1
Constant             999    HK zone array for layer 1
ZHK2
Constant             999    HK zone array for layer 2
ZHK3
Constant               4    HK zone array for layer 3
ZVANI1
Constant               1    VANI zone array for layer 1
ZVANI2
Constant               1    VANI zone array for layer 2
ZVANI3
Constant               1    VANI zone array for layer 3
ZSS1
Constant               2    SS zone array for layer 1
ZSS2
Constant               2    SS zone array for layer 2
ZSS3
Constant               2    SS zone array for layer 3
ZSY1
Constant               3    SY zone array for layer 1
ZSY2
Constant               3    SY zone array for layer 2
ZSY3
Constant               3    SY zone array for layer 3
ZRCH_1
Constant               9    RECHARGE zone array for period 1
ZRCH_2
Constant               9    RECHARGE zone array for period 2
